# AWU package for MODFLOW-NWT, generated by pygsflow
OPTIONS
IRRIGATION_WELL 50 500
PHIRAMP 0.1
MAXWELLS 50
ETDEMAND 1.0
TIMESERIES_WELL
TIMESERIES_WELLET
WELLIRRLIST 510
WELLCBC 119
END
# ag time series
TIME SERIES 
WELL   1   506
WELL   2   506
WELL   3   506
WELL   4   506
WELL   5   506
WELL   6   506
WELL   7   506
WELL   8   506
WELL   9   506
WELL   10   506
WELL   11   506
WELL   12   506
WELL   13   506
WELL   14   506
WELL   15   506
WELL   16   506
WELL   17   506
WELL   18   506
WELL   19   506
WELL   20   506
WELL   21   506
WELL   22   506
WELL   23   506
WELL   24   506
WELL   25   506
WELL   26   506
WELL   27   506
WELL   28   506
WELL   29   506
WELL   30   506
WELL   31   506
WELL   32   506
WELL   33   506
WELL   34   506
WELL   35   506
WELL   36   506
WELL   37   506
WELL   38   506
WELL   39   506
WELL   40   506
WELL   41   506
WELL   42   506
WELL   43   506
WELL   44   506
WELL   45   506
WELL   46   506
WELL   47   506
WELL   48   506
WELL   49   506
WELLET   1   507
WELLET   2   507
WELLET   3   507
WELLET   4   507
WELLET   5   507
WELLET   6   507
WELLET   7   507
WELLET   8   507
WELLET   9   507
WELLET   10   507
WELLET   11   507
WELLET   12   507
WELLET   13   507
WELLET   14   507
WELLET   15   507
WELLET   16   507
WELLET   17   507
WELLET   18   507
WELLET   19   507
WELLET   20   507
WELLET   21   507
WELLET   22   507
WELLET   23   507
WELLET   24   507
WELLET   25   507
WELLET   26   507
WELLET   27   507
WELLET   28   507
WELLET   29   507
WELLET   30   507
WELLET   31   507
WELLET   32   507
WELLET   33   507
WELLET   34   507
WELLET   35   507
WELLET   36   507
WELLET   37   507
WELLET   38   507
WELLET   39   507
WELLET   40   507
WELLET   41   507
WELLET   42   507
WELLET   43   507
WELLET   44   507
WELLET   45   507
WELLET   46   507
WELLET   47   507
WELLET   48   507
WELLET   49   507
WELLETALL   505
WELLALL   504
END 
# ag well list
WELL LIST 
1   15   36   -10000000000.000000
1   16   23   -10000000000.000000
1   17   28   -10000000000.000000
1   17   34   -10000000000.000000
1   18   22   -10000000000.000000
1   18   27   -10000000000.000000
3   18   35   -10000000000.000000
1   20   28   -10000000000.000000
1   20   30   -10000000000.000000
1   20   52   -10000000000.000000
3   21   35   -10000000000.000000
2   21   52   -10000000000.000000
1   22   25   -10000000000.000000
1   22   54   -10000000000.000000
3   23   38   -10000000000.000000
1   24   22   -10000000000.000000
1   24   35   -10000000000.000000
1   25   24   -10000000000.000000
1   25   27   -10000000000.000000
1   25   45   -10000000000.000000
1   27   26   -10000000000.000000
4   27   37   -10000000000.000000
1   27   45   -10000000000.000000
1   28   24   -10000000000.000000
4   29   44   -10000000000.000000
4   30   44   -10000000000.000000
2   33   44   -10000000000.000000
1   33   45   -10000000000.000000
3   34   31   -10000000000.000000
3   34   43   -10000000000.000000
1   35   33   -10000000000.000000
3   35   44   -10000000000.000000
1   36   30   -10000000000.000000
3   36   32   -10000000000.000000
1   38   35   -10000000000.000000
1   38   37   -10000000000.000000
1   39   38   -10000000000.000000
1   39   54   -10000000000.000000
1   41   31   -10000000000.000000
1   42   28   -10000000000.000000
1   42   33   -10000000000.000000
3   43   55   -10000000000.000000
3   44   27   -10000000000.000000
2   44   39   -10000000000.000000
1   45   57   -10000000000.000000
1   46   49   -10000000000.000000
2   46   50   -10000000000.000000
1   47   28   -10000000000.000000
1   47   30   -10000000000.000000
1   47   55   -10000000000.000000
END 
# ag stress period data
STRESS PERIOD 1
IRRWELL 
0
END
STRESS PERIOD 2
IRRWELL 
0
END
STRESS PERIOD 3
IRRWELL 
0
END
STRESS PERIOD 4
IRRWELL 
16 
3   1   10.000000   1.000000
16514   2   0.000000   1.000000
6   1   10.000000   1.000000
16501   2   0.000000   1.000000
8   1   10.000000   1.000000
16529   2   0.000000   1.000000
11   2   10.000000   1.000000
15175   2   0.000000   0.500000
15174   2   0.000000   0.500000
19   1   10.000000   1.000000
15245   2   0.000000   1.000000
20   1   10.000000   1.000000
14910   2   0.000000   1.000000
21   1   10.000000   1.000000
15218   2   0.000000   1.000000
30   1   10.000000   1.000000
15018   2   0.000000   1.000000
37   1   10.000000   1.000000
14576   2   0.000000   1.000000
39   2   10.000000   1.000000
15338   2   0.000000   0.500000
15322   2   0.000000   0.500000
40   2   10.000000   1.000000
15319   2   0.000000   0.500000
15315   2   0.000000   0.500000
41   3   10.000000   1.000000
14563   2   0.000000   0.333333
14562   2   0.000000   0.333333
14553   2   0.000000   0.333333
43   2   10.000000   1.000000
15320   2   0.000000   0.500000
15336   2   0.000000   0.500000
44   2   10.000000   1.000000
14570   2   0.000000   0.500000
14583   2   0.000000   0.500000
46   4   10.000000   1.000000
14492   2   0.000000   0.250000
14519   2   0.000000   0.250000
14463   2   0.000000   0.250000
14477   2   0.000000   0.250000
47   1   10.000000   1.000000
14518   2   0.000000   1.000000
END 
STRESS PERIOD 5
IRRWELL 
16 
3   1   10.000000   1.000000
16514   2   0.000000   1.000000
6   1   10.000000   1.000000
16501   2   0.000000   1.000000
8   1   10.000000   1.000000
16529   2   0.000000   1.000000
11   2   10.000000   1.000000
15175   2   0.000000   0.500000
15174   2   0.000000   0.500000
19   1   10.000000   1.000000
15245   2   0.000000   1.000000
20   1   10.000000   1.000000
14910   2   0.000000   1.000000
21   1   10.000000   1.000000
15218   2   0.000000   1.000000
30   1   10.000000   1.000000
15018   2   0.000000   1.000000
37   1   10.000000   1.000000
14576   2   0.000000   1.000000
39   2   10.000000   1.000000
15338   2   0.000000   0.500000
15322   2   0.000000   0.500000
40   2   10.000000   1.000000
15319   2   0.000000   0.500000
15315   2   0.000000   0.500000
41   3   10.000000   1.000000
14563   2   0.000000   0.333333
14562   2   0.000000   0.333333
14553   2   0.000000   0.333333
43   2   10.000000   1.000000
15320   2   0.000000   0.500000
15336   2   0.000000   0.500000
44   2   10.000000   1.000000
14570   2   0.000000   0.500000
14583   2   0.000000   0.500000
46   4   10.000000   1.000000
14492   2   0.000000   0.250000
14519   2   0.000000   0.250000
14463   2   0.000000   0.250000
14477   2   0.000000   0.250000
47   1   10.000000   1.000000
14518   2   0.000000   1.000000
END 
STRESS PERIOD 6
IRRWELL 
16 
3   1   10.000000   1.000000
16514   2   0.000000   1.000000
6   1   10.000000   1.000000
16501   2   0.000000   1.000000
8   1   10.000000   1.000000
16529   2   0.000000   1.000000
11   2   10.000000   1.000000
15175   2   0.000000   0.500000
15174   2   0.000000   0.500000
19   1   10.000000   1.000000
15245   2   0.000000   1.000000
20   1   10.000000   1.000000
14910   2   0.000000   1.000000
21   1   10.000000   1.000000
15218   2   0.000000   1.000000
30   1   10.000000   1.000000
15018   2   0.000000   1.000000
37   1   10.000000   1.000000
14576   2   0.000000   1.000000
39   2   10.000000   1.000000
15338   2   0.000000   0.500000
15322   2   0.000000   0.500000
40   2   10.000000   1.000000
15319   2   0.000000   0.500000
15315   2   0.000000   0.500000
41   3   10.000000   1.000000
14563   2   0.000000   0.333333
14562   2   0.000000   0.333333
14553   2   0.000000   0.333333
43   2   10.000000   1.000000
15320   2   0.000000   0.500000
15336   2   0.000000   0.500000
44   2   10.000000   1.000000
14570   2   0.000000   0.500000
14583   2   0.000000   0.500000
46   4   10.000000   1.000000
14492   2   0.000000   0.250000
14519   2   0.000000   0.250000
14463   2   0.000000   0.250000
14477   2   0.000000   0.250000
47   1   10.000000   1.000000
14518   2   0.000000   1.000000
END 
STRESS PERIOD 7
IRRWELL 
16 
3   1   10.000000   1.000000
16514   2   0.000000   1.000000
6   1   10.000000   1.000000
16501   2   0.000000   1.000000
8   1   10.000000   1.000000
16529   2   0.000000   1.000000
11   2   10.000000   1.000000
15175   2   0.000000   0.500000
15174   2   0.000000   0.500000
19   1   10.000000   1.000000
15245   2   0.000000   1.000000
20   1   10.000000   1.000000
14910   2   0.000000   1.000000
21   1   10.000000   1.000000
15218   2   0.000000   1.000000
30   1   10.000000   1.000000
15018   2   0.000000   1.000000
37   1   10.000000   1.000000
14576   2   0.000000   1.000000
39   2   10.000000   1.000000
15338   2   0.000000   0.500000
15322   2   0.000000   0.500000
40   2   10.000000   1.000000
15319   2   0.000000   0.500000
15315   2   0.000000   0.500000
41   3   10.000000   1.000000
14563   2   0.000000   0.333333
14562   2   0.000000   0.333333
14553   2   0.000000   0.333333
43   2   10.000000   1.000000
15320   2   0.000000   0.500000
15336   2   0.000000   0.500000
44   2   10.000000   1.000000
14570   2   0.000000   0.500000
14583   2   0.000000   0.500000
46   4   10.000000   1.000000
14492   2   0.000000   0.250000
14519   2   0.000000   0.250000
14463   2   0.000000   0.250000
14477   2   0.000000   0.250000
47   1   10.000000   1.000000
14518   2   0.000000   1.000000
END 
STRESS PERIOD 8
IRRWELL 
50 
1   7   10.000000   1.000000
16442   2   0.000000   0.142857
16444   2   0.000000   0.142857
16461   2   0.000000   0.142857
16447   2   0.000000   0.142857
16462   2   0.000000   0.142857
16446   2   0.000000   0.142857
16458   2   0.000000   0.142857
2   3   10.000000   1.000000
16578   2   0.000000   0.333333
16596   2   0.000000   0.333333
16571   2   0.000000   0.333333
3   1   10.000000   1.000000
16514   2   0.000000   1.000000
4   5   10.000000   1.000000
16469   2   0.000000   0.200000
16470   2   0.000000   0.200000
16457   2   0.000000   0.200000
16450   2   0.000000   0.200000
16451   2   0.000000   0.200000
5   7   10.000000   1.000000
16535   2   0.000000   0.142857
16536   2   0.000000   0.142857
16599   2   0.000000   0.142857
16597   2   0.000000   0.142857
16598   2   0.000000   0.142857
16506   2   0.000000   0.142857
16505   2   0.000000   0.142857
6   1   10.000000   1.000000
16501   2   0.000000   1.000000
7   7   10.000000   1.000000
16455   2   0.000000   0.142857
15077   2   0.000000   0.142857
16471   2   0.000000   0.142857
16454   2   0.000000   0.142857
16453   2   0.000000   0.142857
15075   2   0.000000   0.142857
16472   2   0.000000   0.142857
8   1   10.000000   1.000000
16529   2   0.000000   1.000000
9   5   10.000000   1.000000
16526   2   0.000000   0.200000
16487   2   0.000000   0.200000
16524   2   0.000000   0.200000
16494   2   0.000000   0.200000
16525   2   0.000000   0.200000
10   4   10.000000   1.000000
14648   2   0.000000   0.250000
14668   2   0.000000   0.250000
14697   2   0.000000   0.250000
14667   2   0.000000   0.250000
11   2   10.000000   1.000000
15175   2   0.000000   0.500000
15174   2   0.000000   0.500000
12   6   10.000000   1.000000
14696   2   0.000000   0.166667
14694   2   0.000000   0.166667
14661   2   0.000000   0.166667
14657   2   0.000000   0.166667
14687   2   0.000000   0.166667
14651   2   0.000000   0.166667
13   4   10.000000   1.000000
15236   2   0.000000   0.250000
15214   2   0.000000   0.250000
16483   2   0.000000   0.250000
16635   2   0.000000   0.250000
14   3   10.000000   1.000000
14136   2   0.000000   0.333333
14127   2   0.000000   0.333333
14133   2   0.000000   0.333333
15   1   10.000000   1.000000
14823   2   0.000000   1.000000
16   6   10.000000   1.000000
16638   2   0.000000   0.166667
16643   2   0.000000   0.166667
16636   2   0.000000   0.166667
16634   2   0.000000   0.166667
15232   2   0.000000   0.166667
16644   2   0.000000   0.166667
17   3   10.000000   1.000000
15152   2   0.000000   0.333333
15110   2   0.000000   0.333333
15177   2   0.000000   0.333333
18   6   10.000000   1.000000
15239   2   0.000000   0.166667
16637   2   0.000000   0.166667
15208   2   0.000000   0.166667
15207   2   0.000000   0.166667
16641   2   0.000000   0.166667
16633   2   0.000000   0.166667
19   1   10.000000   1.000000
15245   2   0.000000   1.000000
20   1   10.000000   1.000000
14910   2   0.000000   1.000000
21   1   10.000000   1.000000
15218   2   0.000000   1.000000
22   1   10.000000   1.000000
14864   2   0.000000   1.000000
23   6   10.000000   1.000000
14929   2   0.000000   0.166667
14937   2   0.000000   0.166667
14927   2   0.000000   0.166667
14949   2   0.000000   0.166667
14942   2   0.000000   0.166667
14885   2   0.000000   0.166667
24   3   10.000000   1.000000
15204   2   0.000000   0.333333
16631   2   0.000000   0.333333
15206   2   0.000000   0.333333
25   1   10.000000   1.000000
14950   2   0.000000   1.000000
26   3   10.000000   1.000000
14930   2   0.000000   0.333333
14953   2   0.000000   0.333333
14947   2   0.000000   0.333333
27   2   10.000000   1.000000
14990   2   0.000000   0.500000
15017   2   0.000000   0.500000
28   2   10.000000   1.000000
15016   2   0.000000   0.500000
14969   2   0.000000   0.500000
29   4   10.000000   1.000000
15189   2   0.000000   0.250000
15190   2   0.000000   0.250000
15198   2   0.000000   0.250000
15195   2   0.000000   0.250000
30   1   10.000000   1.000000
15018   2   0.000000   1.000000
31   4   10.000000   1.000000
14857   2   0.000000   0.250000
14837   2   0.000000   0.250000
14851   2   0.000000   0.250000
14849   2   0.000000   0.250000
32   1   10.000000   1.000000
15021   2   0.000000   1.000000
33   4   10.000000   1.000000
15194   2   0.000000   0.250000
15203   2   0.000000   0.250000
15192   2   0.000000   0.250000
15196   2   0.000000   0.250000
34   4   10.000000   1.000000
15040   2   0.000000   0.250000
15035   2   0.000000   0.250000
15039   2   0.000000   0.250000
14856   2   0.000000   0.250000
35   5   10.000000   1.000000
15056   2   0.000000   0.200000
15057   2   0.000000   0.200000
15045   2   0.000000   0.200000
15058   2   0.000000   0.200000
15054   2   0.000000   0.200000
36   5   10.000000   1.000000
15037   2   0.000000   0.200000
15053   2   0.000000   0.200000
14533   2   0.000000   0.200000
15038   2   0.000000   0.200000
15036   2   0.000000   0.200000
37   1   10.000000   1.000000
14576   2   0.000000   1.000000
38   3   10.000000   1.000000
14248   2   0.000000   0.333333
14260   2   0.000000   0.333333
14255   2   0.000000   0.333333
39   2   10.000000   1.000000
15338   2   0.000000   0.500000
15322   2   0.000000   0.500000
40   2   10.000000   1.000000
15319   2   0.000000   0.500000
15315   2   0.000000   0.500000
41   3   10.000000   1.000000
14563   2   0.000000   0.333333
14562   2   0.000000   0.333333
14553   2   0.000000   0.333333
42   3   10.000000   1.000000
14416   2   0.000000   0.333333
14411   2   0.000000   0.333333
14413   2   0.000000   0.333333
43   2   10.000000   1.000000
15320   2   0.000000   0.500000
15336   2   0.000000   0.500000
44   2   10.000000   1.000000
14570   2   0.000000   0.500000
14583   2   0.000000   0.500000
45   8   10.000000   1.000000
14496   2   0.000000   0.125000
14470   2   0.000000   0.125000
14482   2   0.000000   0.125000
14410   2   0.000000   0.125000
14483   2   0.000000   0.125000
14498   2   0.000000   0.125000
14419   2   0.000000   0.125000
14493   2   0.000000   0.125000
46   4   10.000000   1.000000
14492   2   0.000000   0.250000
14519   2   0.000000   0.250000
14463   2   0.000000   0.250000
14477   2   0.000000   0.250000
47   1   10.000000   1.000000
14518   2   0.000000   1.000000
48   5   10.000000   1.000000
15592   2   0.000000   0.200000
15603   2   0.000000   0.200000
15522   2   0.000000   0.200000
15523   2   0.000000   0.200000
15560   2   0.000000   0.200000
49   3   10.000000   1.000000
15519   2   0.000000   0.333333
15520   2   0.000000   0.333333
15521   2   0.000000   0.333333
50   8   10.000000   1.000000
14500   2   0.000000   0.125000
14499   2   0.000000   0.125000
14502   2   0.000000   0.125000
14494   2   0.000000   0.125000
14495   2   0.000000   0.125000
14501   2   0.000000   0.125000
14497   2   0.000000   0.125000
14503   2   0.000000   0.125000
END 
STRESS PERIOD 9
IRRWELL 
50 
1   7   10.000000   1.000000
16442   2   0.000000   0.142857
16444   2   0.000000   0.142857
16461   2   0.000000   0.142857
16447   2   0.000000   0.142857
16462   2   0.000000   0.142857
16446   2   0.000000   0.142857
16458   2   0.000000   0.142857
2   3   10.000000   1.000000
16578   2   0.000000   0.333333
16596   2   0.000000   0.333333
16571   2   0.000000   0.333333
3   1   10.000000   1.000000
16514   2   0.000000   1.000000
4   5   10.000000   1.000000
16469   2   0.000000   0.200000
16470   2   0.000000   0.200000
16457   2   0.000000   0.200000
16450   2   0.000000   0.200000
16451   2   0.000000   0.200000
5   7   10.000000   1.000000
16535   2   0.000000   0.142857
16536   2   0.000000   0.142857
16599   2   0.000000   0.142857
16597   2   0.000000   0.142857
16598   2   0.000000   0.142857
16506   2   0.000000   0.142857
16505   2   0.000000   0.142857
6   1   10.000000   1.000000
16501   2   0.000000   1.000000
7   7   10.000000   1.000000
16455   2   0.000000   0.142857
15077   2   0.000000   0.142857
16471   2   0.000000   0.142857
16454   2   0.000000   0.142857
16453   2   0.000000   0.142857
15075   2   0.000000   0.142857
16472   2   0.000000   0.142857
8   1   10.000000   1.000000
16529   2   0.000000   1.000000
9   5   10.000000   1.000000
16526   2   0.000000   0.200000
16487   2   0.000000   0.200000
16524   2   0.000000   0.200000
16494   2   0.000000   0.200000
16525   2   0.000000   0.200000
10   4   10.000000   1.000000
14648   2   0.000000   0.250000
14668   2   0.000000   0.250000
14697   2   0.000000   0.250000
14667   2   0.000000   0.250000
11   2   10.000000   1.000000
15175   2   0.000000   0.500000
15174   2   0.000000   0.500000
12   6   10.000000   1.000000
14696   2   0.000000   0.166667
14694   2   0.000000   0.166667
14661   2   0.000000   0.166667
14657   2   0.000000   0.166667
14687   2   0.000000   0.166667
14651   2   0.000000   0.166667
13   4   10.000000   1.000000
15236   2   0.000000   0.250000
15214   2   0.000000   0.250000
16483   2   0.000000   0.250000
16635   2   0.000000   0.250000
14   3   10.000000   1.000000
14136   2   0.000000   0.333333
14127   2   0.000000   0.333333
14133   2   0.000000   0.333333
15   1   10.000000   1.000000
14823   2   0.000000   1.000000
16   6   10.000000   1.000000
16638   2   0.000000   0.166667
16643   2   0.000000   0.166667
16636   2   0.000000   0.166667
16634   2   0.000000   0.166667
15232   2   0.000000   0.166667
16644   2   0.000000   0.166667
17   3   10.000000   1.000000
15152   2   0.000000   0.333333
15110   2   0.000000   0.333333
15177   2   0.000000   0.333333
18   6   10.000000   1.000000
15239   2   0.000000   0.166667
16637   2   0.000000   0.166667
15208   2   0.000000   0.166667
15207   2   0.000000   0.166667
16641   2   0.000000   0.166667
16633   2   0.000000   0.166667
19   1   10.000000   1.000000
15245   2   0.000000   1.000000
20   1   10.000000   1.000000
14910   2   0.000000   1.000000
21   1   10.000000   1.000000
15218   2   0.000000   1.000000
22   1   10.000000   1.000000
14864   2   0.000000   1.000000
23   6   10.000000   1.000000
14929   2   0.000000   0.166667
14937   2   0.000000   0.166667
14927   2   0.000000   0.166667
14949   2   0.000000   0.166667
14942   2   0.000000   0.166667
14885   2   0.000000   0.166667
24   3   10.000000   1.000000
15204   2   0.000000   0.333333
16631   2   0.000000   0.333333
15206   2   0.000000   0.333333
25   1   10.000000   1.000000
14950   2   0.000000   1.000000
26   3   10.000000   1.000000
14930   2   0.000000   0.333333
14953   2   0.000000   0.333333
14947   2   0.000000   0.333333
27   2   10.000000   1.000000
14990   2   0.000000   0.500000
15017   2   0.000000   0.500000
28   2   10.000000   1.000000
15016   2   0.000000   0.500000
14969   2   0.000000   0.500000
29   4   10.000000   1.000000
15189   2   0.000000   0.250000
15190   2   0.000000   0.250000
15198   2   0.000000   0.250000
15195   2   0.000000   0.250000
30   1   10.000000   1.000000
15018   2   0.000000   1.000000
31   4   10.000000   1.000000
14857   2   0.000000   0.250000
14837   2   0.000000   0.250000
14851   2   0.000000   0.250000
14849   2   0.000000   0.250000
32   1   10.000000   1.000000
15021   2   0.000000   1.000000
33   4   10.000000   1.000000
15194   2   0.000000   0.250000
15203   2   0.000000   0.250000
15192   2   0.000000   0.250000
15196   2   0.000000   0.250000
34   4   10.000000   1.000000
15040   2   0.000000   0.250000
15035   2   0.000000   0.250000
15039   2   0.000000   0.250000
14856   2   0.000000   0.250000
35   5   10.000000   1.000000
15056   2   0.000000   0.200000
15057   2   0.000000   0.200000
15045   2   0.000000   0.200000
15058   2   0.000000   0.200000
15054   2   0.000000   0.200000
36   5   10.000000   1.000000
15037   2   0.000000   0.200000
15053   2   0.000000   0.200000
14533   2   0.000000   0.200000
15038   2   0.000000   0.200000
15036   2   0.000000   0.200000
37   1   10.000000   1.000000
14576   2   0.000000   1.000000
38   3   10.000000   1.000000
14248   2   0.000000   0.333333
14260   2   0.000000   0.333333
14255   2   0.000000   0.333333
39   2   10.000000   1.000000
15338   2   0.000000   0.500000
15322   2   0.000000   0.500000
40   2   10.000000   1.000000
15319   2   0.000000   0.500000
15315   2   0.000000   0.500000
41   3   10.000000   1.000000
14563   2   0.000000   0.333333
14562   2   0.000000   0.333333
14553   2   0.000000   0.333333
42   3   10.000000   1.000000
14416   2   0.000000   0.333333
14411   2   0.000000   0.333333
14413   2   0.000000   0.333333
43   2   10.000000   1.000000
15320   2   0.000000   0.500000
15336   2   0.000000   0.500000
44   2   10.000000   1.000000
14570   2   0.000000   0.500000
14583   2   0.000000   0.500000
45   8   10.000000   1.000000
14496   2   0.000000   0.125000
14470   2   0.000000   0.125000
14482   2   0.000000   0.125000
14410   2   0.000000   0.125000
14483   2   0.000000   0.125000
14498   2   0.000000   0.125000
14419   2   0.000000   0.125000
14493   2   0.000000   0.125000
46   4   10.000000   1.000000
14492   2   0.000000   0.250000
14519   2   0.000000   0.250000
14463   2   0.000000   0.250000
14477   2   0.000000   0.250000
47   1   10.000000   1.000000
14518   2   0.000000   1.000000
48   5   10.000000   1.000000
15592   2   0.000000   0.200000
15603   2   0.000000   0.200000
15522   2   0.000000   0.200000
15523   2   0.000000   0.200000
15560   2   0.000000   0.200000
49   3   10.000000   1.000000
15519   2   0.000000   0.333333
15520   2   0.000000   0.333333
15521   2   0.000000   0.333333
50   8   10.000000   1.000000
14500   2   0.000000   0.125000
14499   2   0.000000   0.125000
14502   2   0.000000   0.125000
14494   2   0.000000   0.125000
14495   2   0.000000   0.125000
14501   2   0.000000   0.125000
14497   2   0.000000   0.125000
14503   2   0.000000   0.125000
END 
STRESS PERIOD 10
IRRWELL 
50 
1   7   10.000000   1.000000
16442   2   0.000000   0.142857
16444   2   0.000000   0.142857
16461   2   0.000000   0.142857
16447   2   0.000000   0.142857
16462   2   0.000000   0.142857
16446   2   0.000000   0.142857
16458   2   0.000000   0.142857
2   3   10.000000   1.000000
16578   2   0.000000   0.333333
16596   2   0.000000   0.333333
16571   2   0.000000   0.333333
3   1   10.000000   1.000000
16514   2   0.000000   1.000000
4   5   10.000000   1.000000
16469   2   0.000000   0.200000
16470   2   0.000000   0.200000
16457   2   0.000000   0.200000
16450   2   0.000000   0.200000
16451   2   0.000000   0.200000
5   7   10.000000   1.000000
16535   2   0.000000   0.142857
16536   2   0.000000   0.142857
16599   2   0.000000   0.142857
16597   2   0.000000   0.142857
16598   2   0.000000   0.142857
16506   2   0.000000   0.142857
16505   2   0.000000   0.142857
6   1   10.000000   1.000000
16501   2   0.000000   1.000000
7   7   10.000000   1.000000
16455   2   0.000000   0.142857
15077   2   0.000000   0.142857
16471   2   0.000000   0.142857
16454   2   0.000000   0.142857
16453   2   0.000000   0.142857
15075   2   0.000000   0.142857
16472   2   0.000000   0.142857
8   1   10.000000   1.000000
16529   2   0.000000   1.000000
9   5   10.000000   1.000000
16526   2   0.000000   0.200000
16487   2   0.000000   0.200000
16524   2   0.000000   0.200000
16494   2   0.000000   0.200000
16525   2   0.000000   0.200000
10   4   10.000000   1.000000
14648   2   0.000000   0.250000
14668   2   0.000000   0.250000
14697   2   0.000000   0.250000
14667   2   0.000000   0.250000
11   2   10.000000   1.000000
15175   2   0.000000   0.500000
15174   2   0.000000   0.500000
12   6   10.000000   1.000000
14696   2   0.000000   0.166667
14694   2   0.000000   0.166667
14661   2   0.000000   0.166667
14657   2   0.000000   0.166667
14687   2   0.000000   0.166667
14651   2   0.000000   0.166667
13   4   10.000000   1.000000
15236   2   0.000000   0.250000
15214   2   0.000000   0.250000
16483   2   0.000000   0.250000
16635   2   0.000000   0.250000
14   3   10.000000   1.000000
14136   2   0.000000   0.333333
14127   2   0.000000   0.333333
14133   2   0.000000   0.333333
15   1   10.000000   1.000000
14823   2   0.000000   1.000000
16   6   10.000000   1.000000
16638   2   0.000000   0.166667
16643   2   0.000000   0.166667
16636   2   0.000000   0.166667
16634   2   0.000000   0.166667
15232   2   0.000000   0.166667
16644   2   0.000000   0.166667
17   3   10.000000   1.000000
15152   2   0.000000   0.333333
15110   2   0.000000   0.333333
15177   2   0.000000   0.333333
18   6   10.000000   1.000000
15239   2   0.000000   0.166667
16637   2   0.000000   0.166667
15208   2   0.000000   0.166667
15207   2   0.000000   0.166667
16641   2   0.000000   0.166667
16633   2   0.000000   0.166667
19   1   10.000000   1.000000
15245   2   0.000000   1.000000
20   1   10.000000   1.000000
14910   2   0.000000   1.000000
21   1   10.000000   1.000000
15218   2   0.000000   1.000000
22   1   10.000000   1.000000
14864   2   0.000000   1.000000
23   6   10.000000   1.000000
14929   2   0.000000   0.166667
14937   2   0.000000   0.166667
14927   2   0.000000   0.166667
14949   2   0.000000   0.166667
14942   2   0.000000   0.166667
14885   2   0.000000   0.166667
24   3   10.000000   1.000000
15204   2   0.000000   0.333333
16631   2   0.000000   0.333333
15206   2   0.000000   0.333333
25   1   10.000000   1.000000
14950   2   0.000000   1.000000
26   3   10.000000   1.000000
14930   2   0.000000   0.333333
14953   2   0.000000   0.333333
14947   2   0.000000   0.333333
27   2   10.000000   1.000000
14990   2   0.000000   0.500000
15017   2   0.000000   0.500000
28   2   10.000000   1.000000
15016   2   0.000000   0.500000
14969   2   0.000000   0.500000
29   4   10.000000   1.000000
15189   2   0.000000   0.250000
15190   2   0.000000   0.250000
15198   2   0.000000   0.250000
15195   2   0.000000   0.250000
30   1   10.000000   1.000000
15018   2   0.000000   1.000000
31   4   10.000000   1.000000
14857   2   0.000000   0.250000
14837   2   0.000000   0.250000
14851   2   0.000000   0.250000
14849   2   0.000000   0.250000
32   1   10.000000   1.000000
15021   2   0.000000   1.000000
33   4   10.000000   1.000000
15194   2   0.000000   0.250000
15203   2   0.000000   0.250000
15192   2   0.000000   0.250000
15196   2   0.000000   0.250000
34   4   10.000000   1.000000
15040   2   0.000000   0.250000
15035   2   0.000000   0.250000
15039   2   0.000000   0.250000
14856   2   0.000000   0.250000
35   5   10.000000   1.000000
15056   2   0.000000   0.200000
15057   2   0.000000   0.200000
15045   2   0.000000   0.200000
15058   2   0.000000   0.200000
15054   2   0.000000   0.200000
36   5   10.000000   1.000000
15037   2   0.000000   0.200000
15053   2   0.000000   0.200000
14533   2   0.000000   0.200000
15038   2   0.000000   0.200000
15036   2   0.000000   0.200000
37   1   10.000000   1.000000
14576   2   0.000000   1.000000
38   3   10.000000   1.000000
14248   2   0.000000   0.333333
14260   2   0.000000   0.333333
14255   2   0.000000   0.333333
39   2   10.000000   1.000000
15338   2   0.000000   0.500000
15322   2   0.000000   0.500000
40   2   10.000000   1.000000
15319   2   0.000000   0.500000
15315   2   0.000000   0.500000
41   3   10.000000   1.000000
14563   2   0.000000   0.333333
14562   2   0.000000   0.333333
14553   2   0.000000   0.333333
42   3   10.000000   1.000000
14416   2   0.000000   0.333333
14411   2   0.000000   0.333333
14413   2   0.000000   0.333333
43   2   10.000000   1.000000
15320   2   0.000000   0.500000
15336   2   0.000000   0.500000
44   2   10.000000   1.000000
14570   2   0.000000   0.500000
14583   2   0.000000   0.500000
45   8   10.000000   1.000000
14496   2   0.000000   0.125000
14470   2   0.000000   0.125000
14482   2   0.000000   0.125000
14410   2   0.000000   0.125000
14483   2   0.000000   0.125000
14498   2   0.000000   0.125000
14419   2   0.000000   0.125000
14493   2   0.000000   0.125000
46   4   10.000000   1.000000
14492   2   0.000000   0.250000
14519   2   0.000000   0.250000
14463   2   0.000000   0.250000
14477   2   0.000000   0.250000
47   1   10.000000   1.000000
14518   2   0.000000   1.000000
48   5   10.000000   1.000000
15592   2   0.000000   0.200000
15603   2   0.000000   0.200000
15522   2   0.000000   0.200000
15523   2   0.000000   0.200000
15560   2   0.000000   0.200000
49   3   10.000000   1.000000
15519   2   0.000000   0.333333
15520   2   0.000000   0.333333
15521   2   0.000000   0.333333
50   8   10.000000   1.000000
14500   2   0.000000   0.125000
14499   2   0.000000   0.125000
14502   2   0.000000   0.125000
14494   2   0.000000   0.125000
14495   2   0.000000   0.125000
14501   2   0.000000   0.125000
14497   2   0.000000   0.125000
14503   2   0.000000   0.125000
END 
STRESS PERIOD 11
IRRWELL 
50 
1   7   10.000000   1.000000
16442   2   0.000000   0.142857
16444   2   0.000000   0.142857
16461   2   0.000000   0.142857