# AWU package for MODFLOW-NWT, generated by pygsflow
OPTIONS
IRRIGATION_WELL 999 500
MAXWELLS 999
PHIRAMP
ETDEMAND
TIMESERIES_WELL
TIMESERIES_WELLET
WELLIRRLIST 510
WELLCBC 119
END
# ag time series
TIME SERIES 
WELL   1   506
WELL   2   506
WELL   3   506
WELL   4   506
WELL   5   506
WELL   6   506
WELL   7   506
WELL   8   506
WELL   9   506
WELL   10   506
WELL   11   506
WELL   12   506
WELL   13   506
WELL   14   506
WELL   15   506
WELL   16   506
WELL   17   506
WELL   18   506
WELL   19   506
WELL   20   506
WELL   21   506
WELL   22   506
WELL   23   506
WELL   24   506
WELL   25   506
WELL   26   506
WELL   27   506
WELL   28   506
WELL   29   506
WELL   30   506
WELL   31   506
WELL   32   506
WELL   33   506
WELL   34   506
WELL   35   506
WELL   36   506
WELL   37   506
WELL   38   506
WELL   39   506
WELL   40   506
WELL   41   506
WELL   42   506
WELL   43   506
WELL   44   506
WELL   45   506
WELL   46   506
WELL   47   506
WELL   48   506
WELL   49   506
WELL   50   506
WELL   51   506
WELL   52   506
WELL   53   506
WELL   54   506
WELL   55   506
WELL   56   506
WELL   57   506
WELL   58   506
WELL   59   506
WELL   60   506
WELL   61   506
WELL   62   506
WELL   63   506
WELL   64   506
WELL   65   506
WELL   66   506
WELL   67   506
WELL   68   506
WELL   69   506
WELL   70   506
WELL   71   506
WELL   72   506
WELL   73   506
WELL   74   506
WELL   75   506
WELL   76   506
WELL   77   506
WELL   78   506
WELL   79   506
WELL   80   506
WELL   81   506
WELL   82   506
WELL   83   506
WELL   84   506
WELL   85   506
WELL   86   506
WELL   87   506
WELL   88   506
WELL   89   506
WELL   90   506
WELL   91   506
WELL   92   506
WELL   93   506
WELL   94   506
WELL   95   506
WELL   96   506
WELL   97   506
WELL   98   506
WELL   99   506
WELL   100   506
WELL   101   506
WELL   102   506
WELL   103   506
WELL   104   506
WELL   105   506
WELL   106   506
WELL   107   506
WELL   108   506
WELL   109   506
WELL   110   506
WELL   111   506
WELL   112   506
WELL   113   506
WELL   114   506
WELL   115   506
WELL   116   506
WELL   117   506
WELL   118   506
WELL   119   506
WELL   120   506
WELL   121   506
WELL   122   506
WELL   123   506
WELL   124   506
WELL   125   506
WELL   126   506
WELL   127   506
WELL   128   506
WELL   129   506
WELL   130   506
WELL   131   506
WELL   132   506
WELL   133   506
WELL   134   506
WELL   135   506
WELL   136   506
WELL   137   506
WELL   138   506
WELL   139   506
WELL   140   506
WELL   141   506
WELL   142   506
WELL   143   506
WELL   144   506
WELL   145   506
WELL   146   506
WELL   147   506
WELL   148   506
WELL   149   506
WELL   150   506
WELL   151   506
WELL   152   506
WELL   153   506
WELL   154   506
WELL   155   506
WELL   156   506
WELL   157   506
WELL   158   506
WELL   159   506
WELL   160   506
WELL   161   506
WELL   162   506
WELL   163   506
WELL   164   506
WELL   165   506
WELL   166   506
WELL   167   506
WELL   168   506
WELL   169   506
WELL   170   506
WELL   171   506
WELL   172   506
WELL   173   506
WELL   174   506
WELL   175   506
WELL   176   506
WELL   177   506
WELL   178   506
WELL   179   506
WELL   180   506
WELL   181   506
WELL   182   506
WELL   183   506
WELL   184   506
WELL   185   506
WELL   186   506
WELL   187   506
WELL   188   506
WELL   189   506
WELL   190   506
WELL   191   506
WELL   192   506
WELL   193   506
WELL   194   506
WELL   195   506
WELL   196   506
WELL   197   506
WELL   198   506
WELL   199   506
WELL   200   506
WELL   201   506
WELL   202   506
WELL   203   506
WELL   204   506
WELL   205   506
WELL   206   506
WELL   207   506
WELL   208   506
WELL   209   506
WELL   210   506
WELL   211   506
WELL   212   506
WELL   213   506
WELL   214   506
WELL   215   506
WELL   216   506
WELL   217   506
WELL   218   506
WELL   219   506
WELL   220   506
WELL   221   506
WELL   222   506
WELL   223   506
WELL   224   506
WELL   225   506
WELL   226   506
WELL   227   506
WELL   228   506
WELL   229   506
WELL   230   506
WELL   231   506
WELL   232   506
WELL   233   506
WELL   234   506
WELL   235   506
WELL   236   506
WELL   237   506
WELL   238   506
WELL   239   506
WELL   240   506
WELL   241   506
WELL   242   506
WELL   243   506
WELL   244   506
WELL   245   506
WELL   246   506
WELL   247   506
WELL   248   506
WELL   249   506
WELL   250   506
WELL   251   506
WELL   252   506
WELL   253   506
WELL   254   506
WELL   255   506
WELL   256   506
WELL   257   506
WELL   258   506
WELL   259   506
WELL   260   506
WELL   261   506
WELL   262   506
WELL   263   506
WELL   264   506
WELL   265   506
WELL   266   506
WELL   267   506
WELL   268   506
WELL   269   506
WELL   270   506
WELL   271   506
WELL   272   506
WELL   273   506
WELL   274   506
WELL   275   506
WELL   276   506
WELL   277   506
WELL   278   506
WELL   279   506
WELL   280   506
WELL   281   506
WELL   282   506
WELL   283   506
WELL   284   506
WELL   285   506
WELL   286   506
WELL   287   506
WELL   288   506
WELL   289   506
WELL   290   506
WELL   291   506
WELL   292   506
WELL   293   506
WELL   294   506
WELL   295   506
WELL   296   506
WELL   297   506
WELL   298   506
WELL   299   506
WELL   300   506
WELL   301   506
WELL   302   506
WELL   303   506
WELL   304   506
WELL   305   506
WELL   306   506
WELL   307   506
WELL   308   506
WELL   309   506
WELL   310   506
WELL   311   506
WELL   312   506
WELL   313   506
WELL   314   506
WELL   315   506
WELL   316   506
WELL   317   506
WELL   318   506
WELL   319   506
WELL   320   506
WELL   321   506
WELL   322   506
WELL   323   506
WELL   324   506
WELL   325   506
WELL   326   506
WELL   327   506
WELL   328   506
WELL   329   506
WELL   330   506
WELL   331   506
WELL   332   506
WELL   333   506
WELL   334   506
WELL   335   506
WELL   336   506
WELL   337   506
WELL   338   506
WELL   339   506
WELL   340   506
WELL   341   506
WELL   342   506
WELL   343   506
WELL   344   506
WELL   345   506
WELL   346   506
WELL   347   506
WELL   348   506
WELL   349   506
WELL   350   506
WELL   351   506
WELL   352   506
WELL   353   506
WELL   354   506
WELL   355   506
WELL   356   506
WELL   357   506
WELL   358   506
WELL   359   506
WELL   360   506
WELL   361   506
WELL   362   506
WELL   363   506
WELL   364   506
WELL   365   506
WELL   366   506
WELL   367   506
WELL   368   506
WELL   369   506
WELL   370   506
WELL   371   506
WELL   372   506
WELL   373   506
WELL   374   506
WELL   375   506
WELL   376   506
WELL   377   506
WELL   378   506
WELL   379   506
WELL   380   506
WELL   381   506
WELL   382   506
WELL   383   506
WELL   384   506
WELL   385   506
WELL   386   506
WELL   387   506
WELL   388   506
WELL   389   506
WELL   390   506
WELL   391   506
WELL   392   506
WELL   393   506
WELL   394   506
WELL   395   506
WELL   396   506
WELL   397   506
WELL   398   506
WELL   399   506
WELL   400   506
WELL   401   506
WELL   402   506
WELL   403   506
WELL   404   506
WELL   405   506
WELL   406   506
WELL   407   506
WELL   408   506
WELL   409   506
WELL   410   506
WELL   411   506
WELL   412   506
WELL   413   506
WELL   414   506
WELL   415   506
WELL   416   506
WELL   417   506
WELL   418   506
WELL   419   506
WELL   420   506
WELL   421   506
WELL   422   506
WELL   423   506
WELL   424   506
WELL   425   506
WELL   426   506
WELL   427   506
WELL   428   506
WELL   429   506
WELL   430   506
WELL   431   506
WELL   432   506
WELL   433   506
WELL   434   506
WELL   435   506
WELL   436   506
WELL   437   506
WELL   438   506
WELL   439   506
WELL   440   506
WELL   441   506
WELL   442   506
WELL   443   506
WELL   444   506
WELL   445   506
WELL   446   506
WELL   447   506
WELL   448   506
WELL   449   506
WELL   450   506
WELL   451   506
WELL   452   506
WELL   453   506
WELL   454   506
WELL   455   506
WELL   456   506
WELL   457   506
WELL   458   506
WELL   459   506
WELL   460   506
WELL   461   506
WELL   462   506
WELL   463   506
WELL   464   506
WELL   465   506
WELL   466   506
WELL   467   506
WELL   468   506
WELL   469   506
WELL   470   506
WELL   471   506
WELL   472   506
WELL   473   506
WELL   474   506
WELL   475   506
WELL   476   506
WELL   477   506
WELL   478   506
WELL   479   506
WELL   480   506
WELL   481   506
WELL   482   506
WELL   483   506
WELL   484   506
WELL   485   506
WELL   486   506
WELL   487   506
WELL   488   506
WELL   489   506
WELL   490   506
WELL   491   506
WELL   492   506
WELL   493   506
WELL   494   506
WELL   495   506
WELL   496   506
WELL   497   506
WELL   498   506
WELL   499   506
WELL   500   506
WELL   501   506
WELL   502   506
WELL   503   506
WELL   504   506
WELL   505   506
WELL   506   506
WELL   507   506
WELL   508   506
WELL   509   506
WELL   510   506
WELL   511   506
WELL   512   506
WELL   513   506
WELL   514   506
WELL   515   506
WELL   516   506
WELL   517   506
WELL   518   506
WELL   519   506
WELL   520   506
WELL   521   506
WELL   522   506
WELL   523   506
WELL   524   506
WELL   525   506
WELL   526   506
WELL   527   506
WELL   528   506
WELL   529   506
WELL   530   506
WELL   531   506
WELL   532   506
WELL   533   506
WELL   534   506
WELL   535   506
WELL   536   506
WELL   537   506
WELL   538   506
WELL   539   506
WELL   540   506
WELL   541   506
WELL   542   506
WELL   543   506
WELL   544   506
WELL   545   506
WELL   546   506
WELL   547   506
WELL   548   506
WELL   549   506
WELL   550   506
WELL   551   506
WELL   552   506
WELL   553   506
WELL   554   506
WELL   555   506
WELL   556   506
WELL   557   506
WELL   558   506
WELL   559   506
WELL   560   506
WELL   561   506
WELL   562   506
WELL   563   506
WELL   564   506
WELL   565   506
WELL   566   506
WELL   567   506
WELL   568   506
WELL   569   506
WELL   570   506
WELL   571   506
WELL   572   506
WELL   573   506
WELL   574   506
WELL   575   506
WELL   576   506
WELL   577   506
WELL   578   506
WELL   579   506
WELL   580   506
WELL   581   506
WELL   582   506
WELL   583   506
WELL   584   506
WELL   585   506
WELL   586   506
WELL   587   506
WELL   588   506
WELL   589   506
WELL   590   506
WELL   591   506
WELL   592   506
WELL   593   506
WELL   594   506
WELL   595   506
WELL   596   506
WELL   597   506
WELL   598   506
WELL   599   506
WELL   600   506
WELL   601   506
WELL   602   506
WELL   603   506
WELL   604   506
WELL   605   506
WELL   606   506
WELL   607   506
WELL   608   506
WELL   609   506
WELL   610   506
WELL   611   506
WELL   612   506
WELL   613   506
WELL   614   506
WELL   615   506
WELL   616   506
WELL   617   506
WELL   618   506
WELL   619   506
WELL   620   506
WELL   621   506
WELL   622   506
WELL   623   506
WELL   624   506
WELL   625   506
WELL   626   506
WELL   627   506
WELL   628   506
WELL   629   506
WELL   630   506
WELL   631   506
WELL   632   506
WELL   633   506
WELL   634   506
WELL   635   506
WELL   636   506
WELL   637   506
WELL   638   506
WELL   639   506
WELL   640   506
WELL   641   506
WELL   642   506
WELL   643   506
WELL   644   506
WELL   645   506
WELL   646   506
WELL   647   506
WELL   648   506
WELL   649   506
WELL   650   506
WELL   651   506
WELL   652   506
WELL   653   506
WELL   654   506
WELL   655   506
WELL   656   506
WELL   657   506
WELL   658   506
WELL   659   506
WELL   660   506
WELL   661   506
WELL   662   506
WELL   663   506
WELL   664   506
WELL   665   506
WELL   666   506
WELL   667   506
WELL   668   506
WELL   669   506
WELL   670   506
WELL   671   506
WELL   672   506
WELL   673   506
WELL   674   506
WELL   675   506
WELL   676   506
WELL   677   506
WELL   678   506
WELL   679   506
WELL   680   506
WELL   681   506
WELL   682   506
WELL   683   506
WELL   684   506
WELL   685   506
WELL   686   506
WELL   687   506
WELL   688   506
WELL   689   506
WELL   690   506
WELL   691   506
WELL   692   506
WELL   693   506
WELL   694   506
WELL   695   506
WELL   696   506
WELL   697   506
WELL   698   506
WELL   699   506
WELL   700   506
WELL   701   506
WELL   702   506
WELL   703   506
WELL   704   506
WELL   705   506
WELL   706   506
WELL   707   506
WELL   708   506
WELL   709   506
WELL   710   506
WELL   711   506
WELL   712   506
WELL   713   506
WELL   714   506
WELL   715   506
WELL   716   506
WELL   717   506
WELL   718   506
WELL   719   506
WELL   720   506
WELL   721   506
WELL   722   506
WELL   723   506
WELL   724   506
WELL   725   506
WELL   726   506
WELL   727   506
WELL   728   506
WELL   729   506
WELL   730   506
WELL   731   506
WELL   732   506
WELL   733   506
WELL   734   506
WELL   735   506
WELL   736   506
WELL   737   506
WELL   738   506
WELL   739   506
WELL   740   506
WELL   741   506
WELL   742   506
WELL   743   506
WELL   744   506
WELL   745   506
WELL   746   506
WELL   747   506
WELL   748   506
WELL   749   506
WELL   750   506
WELL   751   506
WELL   752   506
WELL   753   506
WELL   754   506
WELL   755   506
WELL   756   506
WELL   757   506
WELL   758   506
WELL   759   506
WELL   760   506
WELL   761   506
WELL   762   506
WELL   763   506
WELL   764   506
WELL   765   506
WELL   766   506
WELL   767   506
WELL   768   506
WELL   769   506
WELL   770   506
WELL   771   506
WELL   772   506
WELL   773   506
WELL   774   506
WELL   775   506
WELL   776   506
WELL   777   506
WELL   778   506
WELL   779   506
WELL   780   506
WELL   781   506
WELL   782   506
WELL   783   506
WELL   784   506
WELL   785   506
WELL   786   506
WELL   787   506
WELL   788   506
WELL   789   506
WELL   790   506
WELL   791   506
WELL   792   506
WELL   793   506
WELL   794   506
WELL   795   506
WELL   796   506
WELL   797   506
WELL   798   506
WELL   799   506
WELL   800   506
WELL   801   506
WELL   802   506
WELL   803   506
WELL   804   506
WELL   805   506
WELL   806   506
WELL   807   506
WELL   808   506
WELL   809   506
WELL   810   506
WELL   811   506
WELL   812   506
WELL   813   506
WELL   814   506
WELL   815   506
WELL   816   506
WELL   817   506
WELL   818   506
WELL   819   506
WELL   820   506
WELL   821   506
WELL   822   506
WELL   823   506
WELL   824   506
WELL   825   506
WELL   826   506
WELL   827   506
WELL   828   506
WELL   829   506
WELL   830   506
WELL   831   506
WELL   832   506
WELL   833   506
WELL   834   506
WELL   835   506
WELL   836   506
WELL   837   506
WELL   838   506
WELL   839   506
WELL   840   506
WELL   841   506
WELL   842   506
WELL   843   506
WELL   844   506
WELL   845   506
WELL   846   506
WELL   847   506
WELL   848   506
WELL   849   506
WELL   850   506
WELL   851   506
WELL   852   506
WELL   853   506
WELL   854   506
WELL   855   506
WELL   856   506
WELL   857   506
WELL   858   506
WELL   859   506
WELL   860   506
WELL   861   506
WELL   862   506
WELL   863   506
WELL   864   506
WELL   865   506
WELL   866   506
WELL   867   506
WELL   868   506
WELL   869   506
WELL   870   506
WELL   871   506
WELL   872   506
WELL   873   506
WELL   874   506
WELL   875   506
WELL   876   506
WELL   877   506
WELL   878   506
WELL   879   506
WELL   880   506
WELL   881   506
WELL   882   506
WELL   883   506
WELL   884   506
WELL   885   506
WELL   886   506
WELL   887   506
WELL   888   506
WELL   889   506
WELL   890   506
WELL   891   506
WELL   892   506
WELL   893   506
WELL   894   506
WELL   895   506
WELL   896   506
WELL   897   506
WELL   898   506
WELL   899   506
WELL   900   506
WELL   901   506
WELL   902   506
WELL   903   506
WELL   904   506
WELL   905   506
WELL   906   506
WELL   907   506
WELL   908   506
WELL   909   506
WELL   910   506
WELL   911   506
WELL   912   506
WELL   913   506
WELL   914   506
WELL   915   506
WELL   916   506
WELL   917   506
WELL   918   506
WELL   919   506
WELL   920   506
WELL   921   506
WELL   922   506
WELL   923   506
WELL   924   506
WELL   925   506
WELL   926   506
WELL   927   506
WELL   928   506
WELL   929   506
WELL   930   506
WELL   931   506
WELL   932   506
WELL   933   506
WELL   934   506
WELL   935   506
WELL   936   506
WELL   937   506
WELL   938   506
WELL   939   506
WELL   940   506
WELL   941   506
WELL   942   506
WELL   943   506
WELL   944   506
WELL   945   506
WELL   946   506
WELL   947   506
WELL   948   506
WELL   949   506
WELL   950   506
WELL   951   506
WELL   952   506
WELL   953   506
WELL   954   506
WELL   955   506
WELL   956   506
WELL   957   506
WELL   958   506
WELL   959   506
WELL   960   506
WELL   961   506
WELL   962   506
WELL   963   506
WELL   964   506
WELL   965   506
WELL   966   506
WELL   967   506
WELL   968   506
WELL   969   506
WELL   970   506
WELL   971   506
WELL   972   506
WELL   973   506
WELL   974   506
WELL   975   506
WELL   976   506
WELL   977   506
WELL   978   506
WELL   979   506
WELL   980   506
WELL   981   506
WELL   982   506
WELL   983   506
WELL   984   506
WELL   985   506
WELL   986   506
WELL   987   506
WELL   988   506
WELL   989   506
WELL   990   506
WELL   991   506
WELL   992   506
WELL   993   506
WELL   994   506
WELL   995   506
WELL   996   506
WELL   997   506
WELL   998   506
WELLET   1   507
WELLET   2   507
WELLET   3   507
WELLET   4   507
WELLET   5   507
WELLET   6   507
WELLET   7   507
WELLET   8   507
WELLET   9   507
WELLET   10   507
WELLET   11   507
WELLET   12   507
WELLET   13   507
WELLET   14   507
WELLET   15   507
WELLET   16   507
WELLET   17   507
WELLET   18   507
WELLET   19   507
WELLET   20   507
WELLET   21   507
WELLET   22   507
WELLET   23   507
WELLET   24   507
WELLET   25   507
WELLET   26   507
WELLET   27   507
WELLET   28   507
WELLET   29   507
WELLET   30   507
WELLET   31   507
WELLET   32   507
WELLET   33   507
WELLET   34   507
WELLET   35   507
WELLET   36   507
WELLET   37   507
WELLET   38   507
WELLET   39   507
WELLET   40   507
WELLET   41   507
WELLET   42   507
WELLET   43   507
WELLET   44   507
WELLET   45   507
WELLET   46   507
WELLET   47   507
WELLET   48   507
WELLET   49   507
WELLET   50   507
WELLET   51   507
WELLET   52   507
WELLET   53   507
WELLET   54   507
WELLET   55   507
WELLET   56   507
WELLET   57   507
WELLET   58   507
WELLET   59   507
WELLET   60   507
WELLET   61   507
WELLET   62   507
WELLET   63   507
WELLET   64   507
WELLET   65   507
WELLET   66   507
WELLET   67   507
WELLET   68   507
WELLET   69   507
WELLET   70   507
WELLET   71   507
WELLET   72   507
WELLET   73   507
WELLET   74   507
WELLET   75   507
WELLET   76   507
WELLET   77   507
WELLET   78   507
WELLET   79   507
WELLET   80   507
WELLET   81   507
WELLET   82   507
WELLET   83   507
WELLET   84   507
WELLET   85   507
WELLET   86   507
WELLET   87   507
WELLET   88   507
WELLET   89   507
WELLET   90   507
WELLET   91   507
WELLET   92   507
WELLET   93   507
WELLET   94   507
WELLET   95   507
WELLET   96   507
WELLET   97   507
WELLET   98   507
WELLET   99   507
WELLET   100   507
WELLET   101   507
WELLET   102   507
WELLET   103   507
WELLET   104   507
WELLET   105   507
WELLET   106   507
WELLET   107   507
WELLET   108   507
WELLET   109   507
WELLET   110   507
WELLET   111   507
WELLET   112   507
WELLET   113   507
WELLET   114   507
WELLET   115   507
WELLET   116   507
WELLET   117   507
WELLET   118   507
WELLET   119   507
WELLET   120   507
WELLET   121   507
WELLET   122   507
WELLET   123   507
WELLET   124   507
WELLET   125   507
WELLET   126   507
WELLET   127   507
WELLET   128   507
WELLET   129   507
WELLET   130   507
WELLET   131   507
WELLET   132   507
WELLET   133   507
WELLET   134   507
WELLET   135   507
WELLET   136   507
WELLET   137   507
WELLET   138   507
WELLET   139   507
WELLET   140   507
WELLET   141   507
WELLET   142   507
WELLET   143   507
WELLET   144   507
WELLET   145   507
WELLET   146   507
WELLET   147   507
WELLET   148   507
WELLET   149   507
WELLET   150   507
WELLET   151   507
WELLET   152   507
WELLET   153   507
WELLET   154   507
WELLET   155   507
WELLET   156   507
WELLET   157   507
WELLET   158   507
WELLET   159   507
WELLET   160   507
WELLET   161   507
WELLET   162   507
WELLET   163   507
WELLET   164   507
WELLET   165   507
WELLET   166   507
WELLET   167   507
WELLET   168   507
WELLET   169   507
WELLET   170   507
WELLET   171   507
WELLET   172   507
WELLET   173   507
WELLET   174   507
WELLET   175   507
WELLET   176   507
WELLET   177   507
WELLET   178   507
WELLET   179   507
WELLET   180   507
WELLET   181   507
WELLET   182   507
WELLET   183   507
WELLET   184   507
WELLET   185   507
WELLET   186   507
WELLET   187   507
WELLET   188   507
WELLET   189   507
WELLET   190   507
WELLET   191   507
WELLET   192   507
WELLET   193   507
WELLET   194   507
WELLET   195   507
WELLET   196   507
WELLET   197   507
WELLET   198   507
WELLET   199   507
WELLET   200   507
WELLET   201   507
WELLET   202   507
WELLET   203   507
WELLET   204   507
WELLET   205   507
WELLET   206   507
WELLET   207   507
WELLET   208   507
WELLET   209   507
WELLET   210   507
WELLET   211   507
WELLET   212   507
WELLET   213   507
WELLET   214   507
WELLET   215   507
WELLET   216   507
WELLET   217   507
WELLET   218   507
WELLET   219   507
WELLET   220   507
WELLET   221   507
WELLET   222   507
WELLET   223   507
WELLET   224   507
WELLET   225   507
WELLET   226   507
WELLET   227   507
WELLET   228   507
WELLET   229   507
WELLET   230   507
WELLET   231   507
WELLET   232   507
WELLET   233   507
WELLET   234   507
WELLET   235   507
WELLET   236   507
WELLET   237   507
WELLET   238   507
WELLET   239   507
WELLET   240   507
WELLET   241   507
WELLET   242   507
WELLET   243   507
WELLET   244   507
WELLET   245   507
WELLET   246   507
WELLET   247   507
WELLET   248   507
WELLET   249   507
WELLET   250   507
WELLET   251   507
WELLET   252   507
WELLET   253   507
WELLET   254   507
WELLET   255   507
WELLET   256   507
WELLET   257   507
WELLET   258   507
WELLET   259   507
WELLET   260   507
WELLET   261   507
WELLET   262   507
WELLET   263   507
WELLET   264   507
WELLET   265   507
WELLET   266   507
WELLET   267   507
WELLET   268   507
WELLET   269   507
WELLET   270   507
WELLET   271   507
WELLET   272   507
WELLET   273   507
WELLET   274   507
WELLET   275   507
WELLET   276   507
WELLET   277   507
WELLET   278   507
WELLET   279   507
WELLET   280   507
WELLET   281   507
WELLET   282   507
WELLET   283   507
WELLET   284   507
WELLET   285   507
WELLET   286   507
WELLET   287   507
WELLET   288   507
WELLET   289   507
WELLET   290   507
WELLET   291   507
WELLET   292   507
WELLET   293   507
WELLET   294   507
WELLET   295   507
WELLET   296   507
WELLET   297   507
WELLET   298   507
WELLET   299   507
WELLET   300   507
WELLET   301   507
WELLET   302   507
WELLET   303   507
WELLET   304   507
WELLET   305   507
WELLET   306   507
WELLET   307   507
WELLET   308   507
WELLET   309   507
WELLET   310   507
WELLET   311   507
WELLET   312   507
WELLET   313   507
WELLET   314   507
WELLET   315   507
WELLET   316   507
WELLET   317   507
WELLET   318   507
WELLET   319   507
WELLET   320   507
WELLET   321   507
WELLET   322   507
WELLET   323   507
WELLET   324   507
WELLET   325   507
WELLET   326   507
WELLET   327   507
WELLET   328   507
WELLET   329   507
WELLET   330   507
WELLET   331   507
WELLET   332   507
WELLET   333   507
WELLET   334   507
WELLET   335   507
WELLET   336   507
WELLET   337   507
WELLET   338   507
WELLET   339   507
WELLET   340   507
WELLET   341   507
WELLET   342   507
WELLET   343   507
WELLET   344   507
WELLET   345   507
WELLET   346   507
WELLET   347   507
WELLET   348   507
WELLET   349   507
WELLET   350   507
WELLET   351   507
WELLET   352   507
WELLET   353   507
WELLET   354   507
WELLET   355   507
WELLET   356   507
WELLET   357   507
WELLET   358   507
WELLET   359   507
WELLET   360   507
WELLET   361   507
WELLET   362   507
WELLET   363   507
WELLET   364   507
WELLET   365   507
WELLET   366   507
WELLET   367   507
WELLET   368   507
WELLET   369   507
WELLET   370   507
WELLET   371   507
WELLET   372   507
WELLET   373   507
WELLET   374   507
WELLET   375   507
WELLET   376   507
WELLET   377   507
WELLET   378   507
WELLET   379   507
WELLET   380   507
WELLET   381   507
WELLET   382   507
WELLET   383   507
WELLET   384   507
WELLET   385   507
WELLET   386   507
WELLET   387   507
WELLET   388   507
WELLET   389   507
WELLET   390   507
WELLET   391   507
WELLET   392   507
WELLET   393   507
WELLET   394   507
WELLET   395   507
WELLET   396   507
WELLET   397   507
WELLET   398   507
WELLET   399   507
WELLET   400   507
WELLET   401   507
WELLET   402   507
WELLET   403   507
WELLET   404   507
WELLET   405   507
WELLET   406   507
WELLET   407   507
WELLET   408   507
WELLET   409   507
WELLET   410   507
WELLET   411   507
WELLET   412   507
WELLET   413   507
WELLET   414   507
WELLET   415   507
WELLET   416   507
WELLET   417   507
WELLET   418   507
WELLET   419   507
WELLET   420   507
WELLET   421   507
WELLET   422   507
WELLET   423   507
WELLET   424   507
WELLET   425   507
WELLET   426   507
WELLET   427   507
WELLET   428   507
WELLET   429   507
WELLET   430   507
WELLET   431   507
WELLET   432   507
WELLET   433   507
WELLET   434   507
WELLET   435   507
WELLET   436   507
WELLET   437   507
WELLET   438   507
WELLET   439   507
WELLET   440   507
WELLET   441   507
WELLET   442   507
WELLET   443   507
WELLET   444   507
WELLET   445   507
WELLET   446   507
WELLET   447   507
WELLET   448   507
WELLET   449   507
WELLET   450   507
WELLET   451   507
WELLET   452   507
WELLET   453   507
WELLET   454   507
WELLET   455   507
WELLET   456   507
WELLET   457   507
WELLET   458   507
WELLET   459   507
WELLET   460   507
WELLET   461   507
WELLET   462   507
WELLET   463   507
WELLET   464   507
WELLET   465   507
WELLET   466   507
WELLET   467   507
WELLET   468   507
WELLET   469   507
WELLET   470   507
WELLET   471   507
WELLET   472   507
WELLET   473   507
WELLET   474   507
WELLET   475   507
WELLET   476   507
WELLET   477   507
WELLET   478   507
WELLET   479   507
WELLET   480   507
WELLET   481   507
WELLET   482   507
WELLET   483   507
WELLET   484   507
WELLET   485   507
WELLET   486   507
WELLET   487   507
WELLET   488   507
WELLET   489   507
WELLET   490   507
WELLET   491   507
WELLET   492   507
WELLET   493   507
WELLET   494   507
WELLET   495   507
WELLET   496   507
WELLET   497   507
WELLET   498   507
WELLET   499   507
WELLET   500   507
WELLET   501   507
WELLET   502   507
WELLET   503   507
WELLET   504   507
WELLET   505   507
WELLET   506   507
WELLET   507   507
WELLET   508   507
WELLET   509   507
WELLET   510   507
WELLET   511   507
WELLET   512   507
WELLET   513   507
WELLET   514   507
WELLET   515   507
WELLET   516   507
WELLET   517   507
WELLET   518   507
WELLET   519   507
WELLET   520   507
WELLET   521   507
WELLET   522   507
WELLET   523   507
WELLET   524   507
WELLET   525   507
WELLET   526   507
WELLET   527   507
WELLET   528   507
WELLET   529   507
WELLET   530   507
WELLET   531   507
WELLET   532   507
WELLET   533   507
WELLET   534   507
WELLET   535   507
WELLET   536   507
WELLET   537   507
WELLET   538   507
WELLET   539   507
WELLET   540   507
WELLET   541   507
WELLET   542   507
WELLET   543   507
WELLET   544   507
WELLET   545   507
WELLET   546   507
WELLET   547   507
WELLET   548   507
WELLET   549   507
WELLET   550   507
WELLET   551   507
WELLET   552   507
WELLET   553   507
WELLET   554   507
WELLET   555   507
WELLET   556   507
WELLET   557   507
WELLET   558   507
WELLET   559   507
WELLET   560   507
WELLET   561   507
WELLET   562   507
WELLET   563   507
WELLET   564   507
WELLET   565   507
WELLET   566   507
WELLET   567   507
WELLET   568   507
WELLET   569   507
WELLET   570   507
WELLET   571   507
WELLET   572   507
WELLET   573   507
WELLET   574   507
WELLET   575   507
WELLET   576   507
WELLET   577   507
WELLET   578   507
WELLET   579   507
WELLET   580   507
WELLET   581   507
WELLET   582   507
WELLET   583   507
WELLET   584   507
WELLET   585   507
WELLET   586   507
WELLET   587   507
WELLET   588   507
WELLET   589   507
WELLET   590   507
WELLET   591   507
WELLET   592   507
WELLET   593   507
WELLET   594   507
WELLET   595   507
WELLET   596   507
WELLET   597   507
WELLET   598   507
WELLET   599   507
WELLET   600   507
WELLET   601   507
WELLET   602   507
WELLET   603   507
WELLET   604   507
WELLET   605   507
WELLET   606   507
WELLET   607   507
WELLET   608   507
WELLET   609   507
WELLET   610   507
WELLET   611   507
WELLET   612   507
WELLET   613   507
WELLET   614   507
WELLET   615   507
WELLET   616   507
WELLET   617   507
WELLET   618   507
WELLET   619   507
WELLET   620   507
WELLET   621   507
WELLET   622   507
WELLET   623   507
WELLET   624   507
WELLET   625   507
WELLET   626   507
WELLET   627   507
WELLET   628   507
WELLET   629   507
WELLET   630   507
WELLET   631   507
WELLET   632   507
WELLET   633   507
WELLET   634   507
WELLET   635   507
WELLET   636   507
WELLET   637   507
WELLET   638   507
WELLET   639   507
WELLET   640   507
WELLET   641   507
WELLET   642   507
WELLET   643   507
WELLET   644   507
WELLET   645   507
WELLET   646   507
WELLET   647   507
WELLET   648   507
WELLET   649   507
WELLET   650   507
WELLET   651   507
WELLET   652   507
WELLET   653   507
WELLET   654   507
WELLET   655   507
WELLET   656   507
WELLET   657   507
WELLET   658   507
WELLET   659   507
WELLET   660   507
WELLET   661   507
WELLET   662   507
WELLET   663   507
WELLET   664   507
WELLET   665   507
WELLET   666   507
WELLET   667   507
WELLET   668   507
WELLET   669   507
WELLET   670   507
WELLET   671   507
WELLET   672   507
WELLET   673   507
WELLET   674   507
WELLET   675   507
WELLET   676   507
WELLET   677   507
WELLET   678   507
WELLET   679   507
WELLET   680   507
WELLET   681   507
WELLET   682   507
WELLET   683   507
WELLET   684   507
WELLET   685   507
WELLET   686   507